<?xml version="1.0" encoding="UTF-8"?>

<!-- generated on Fri Mar 21 10:18:04 2014 by SUMO netconvert Version 0.15.0
<?xml version="1.0" encoding="UTF-8"?>

<configuration xmlns:xsi="http://www.w3.org/2001/XMLSchema-instance" xsi:noNamespaceSchemaLocation="http://sumo.sf.net/xsd/netconvertConfiguration.xsd">

    <input>
        <osm-files value="/home/tijs/Dropbox/S6Project/PTS ESD/SUMO-OSM files/PTS-ESD-2.osm"/>
    </input>

    <output>
        <output-file value="/home/tijs/Dropbox/S6Project/PTS ESD/SUMO-OSM files/PTS-ESD-2.net.xml"/>
        <output.street-names value="true"/>
    </output>

    <projection>
        <proj.utm value="true"/>
    </projection>

    <report>
        <verbose value="true"/>
    </report>

</configuration>
-->

<net version="0.13" xmlns:xsi="http://www.w3.org/2001/XMLSchema-instance" xsi:noNamespaceSchemaLocation="http://sumo.sf.net/xsd/net_file.xsd">

    <location netOffset="-647634.70,-5693193.83" convBoundary="0.00,0.00,44032.93,32870.20" origBoundary="5.129593,51.367000,5.756590,51.663016" projParameter="+proj=utm +zone=31 +ellps=WGS84 +datum=WGS84 +units=m +no_defs"/>

    <edge id=":-10_0" function="internal">
        <lane id=":-10_0_0" index="0" speed="27.78" length="35.80" shape="3.94,20531.13 0.39,20524.92 -0.05,20517.37 2.65,20508.47 8.48,20498.23"/>
    </edge>
    <edge id=":-10_1" function="internal">
        <lane id=":-10_1_0" index="0" speed="27.78" length="31.37" shape="6.37,20528.88 3.49,20523.66 3.34,20517.11 5.92,20509.26 11.21,20500.08"/>
    </edge>
    <edge id=":-10_2" function="internal">
        <lane id=":-10_2_0" index="0" speed="27.78" length="12.49" shape="6.37,20528.88 3.78,20523.96 5.24,20519.17 6.71,20517.93"/>
    </edge>
    <edge id=":-10_11" function="internal">
        <lane id=":-10_11_0" index="0" speed="27.78" length="15.90" shape="6.71,20517.93 10.76,20514.50 20.33,20509.95"/>
    </edge>
    <edge id=":-10_3" function="internal">
        <lane id=":-10_3_0" index="0" speed="27.78" length="2.41" shape="6.37,20528.88 6.13,20527.42 6.45,20526.55"/>
    </edge>
    <edge id=":-10_12" function="internal">
        <lane id=":-10_12_0" index="0" speed="27.78" length="2.41" shape="6.45,20526.55 7.34,20526.29 8.79,20526.64"/>
    </edge>
    <edge id=":-10_4" function="internal">
        <lane id=":-10_4_0" index="0" speed="27.78" length="15.30" shape="22.71,20516.11 16.69,20518.67 12.77,20520.91 10.94,20522.82 11.21,20524.40"/>
    </edge>
    <edge id=":-10_5" function="internal">
        <lane id=":-10_5_0" index="0" speed="27.78" length="32.08" shape="21.52,20513.03 11.18,20515.97 6.02,20514.79 6.03,20509.50 11.21,20500.08"/>
    </edge>
    <edge id=":-10_6" function="internal">
        <lane id=":-10_6_0" index="0" speed="27.78" length="4.82" shape="21.52,20513.03 20.07,20512.71 19.39,20512.09 19.47,20511.17 20.33,20509.95"/>
    </edge>
    <edge id=":-10_7" function="internal">
        <lane id=":-10_7_0" index="0" speed="27.78" length="7.66" shape="16.68,20503.78 15.44,20506.03 15.44,20507.29 16.67,20507.58 19.14,20506.87"/>
    </edge>
    <edge id=":-10_8" function="internal">
        <lane id=":-10_8_0" index="0" speed="27.78" length="22.59" shape="16.68,20503.78 12.45,20510.82 10.12,20516.60 9.71,20521.13 11.21,20524.40"/>
    </edge>
    <edge id=":-10_9" function="internal">
        <lane id=":-10_9_0" index="0" speed="27.78" length="26.96" shape="13.95,20501.93 9.18,20510.04 6.73,20516.86 6.60,20522.39 8.79,20526.64"/>
    </edge>
    <edge id=":-10_10" function="internal">
        <lane id=":-10_10_0" index="0" speed="27.78" length="2.41" shape="13.95,20501.93 12.57,20502.50 11.65,20502.37"/>
    </edge>
    <edge id=":-10_13" function="internal">
        <lane id=":-10_13_0" index="0" speed="27.78" length="2.41" shape="11.65,20502.37 11.20,20501.57 11.21,20500.08"/>
    </edge>
    <edge id=":-12_0" function="internal">
        <lane id=":-12_0_0" index="0" speed="27.78" length="2.50" shape="13899.12,7.49 13898.50,7.22 13897.93,7.21 13897.42,7.45 13896.96,7.96"/>
    </edge>
    <edge id=":-12_1" function="internal">
        <lane id=":-12_1_0" index="0" speed="27.78" length="7.64" shape="13900.85,4.68 13898.94,3.85 13897.20,3.81 13895.63,4.56 13894.23,6.11"/>
    </edge>
    <edge id=":-12_2" function="internal">
        <lane id=":-12_2_0" index="0" speed="27.78" length="2.41" shape="13900.85,4.68 13900.22,3.33 13900.30,2.41"/>
    </edge>
    <edge id=":-12_6" function="internal">
        <lane id=":-12_6_0" index="0" speed="27.78" length="2.41" shape="13900.30,2.41 13901.09,1.92 13902.57,1.86"/>
    </edge>
    <edge id=":-12_3" function="internal">
        <lane id=":-12_3_0" index="0" speed="27.78" length="17.94" shape="13888.77,2.41 13892.05,-1.22 13895.73,-2.98 13899.81,-2.89 13904.30,-0.95"/>
    </edge>
    <edge id=":-12_4" function="internal">
        <lane id=":-12_4_0" index="0" speed="27.78" length="12.79" shape="13891.50,4.26 13893.84,1.67 13896.46,0.41 13899.37,0.48 13902.57,1.86"/>
    </edge>
    <edge id=":-12_5" function="internal">
        <lane id=":-12_5_0" index="0" speed="27.78" length="2.41" shape="13891.50,4.26 13892.88,3.69 13893.79,3.82"/>
    </edge>
    <edge id=":-12_7" function="internal">
        <lane id=":-12_7_0" index="0" speed="27.78" length="2.41" shape="13893.79,3.82 13894.24,4.62 13894.23,6.11"/>
    </edge>
    <edge id=":-14_0" function="internal">
        <lane id=":-14_0_0" index="0" speed="27.78" length="5.04" shape="21011.77,4360.15 21010.39,4360.28 21009.39,4360.83 21008.79,4361.79 21008.57,4363.15"/>
    </edge>
    <edge id=":-14_1" function="internal">
        <lane id=":-14_1_0" index="0" speed="27.78" length="15.85" shape="21011.77,4360.15 21007.07,4359.97 21003.81,4359.62 21000.76,4358.58 20996.70,4356.32"/>
    </edge>
    <edge id=":-14_2" function="internal">
        <lane id=":-14_2_0" index="0" speed="27.78" length="14.18" shape="21011.92,4356.85 21007.71,4356.71 21004.79,4356.42 21002.05,4355.51 20998.42,4353.50"/>
    </edge>
    <edge id=":-14_3" function="internal">
        <lane id=":-14_3_0" index="0" speed="27.78" length="2.41" shape="21011.92,4356.85 21010.72,4355.97 21010.34,4355.13"/>
    </edge>
    <edge id=":-14_11" function="internal">
        <lane id=":-14_11_0" index="0" speed="27.78" length="2.41" shape="21010.34,4355.13 21010.79,4354.32 21012.07,4353.56"/>
    </edge>
    <edge id=":-14_4" function="internal">
        <lane id=":-14_4_0" index="0" speed="27.78" length="10.83" shape="21001.87,4347.87 21004.65,4349.38 21006.75,4350.02 21009.00,4350.17 21012.22,4350.26"/>
    </edge>
    <edge id=":-14_5" function="internal">
        <lane id=":-14_5_0" index="0" speed="27.78" length="12.50" shape="21000.15,4350.69 21003.35,4352.45 21005.77,4353.22 21008.36,4353.44 21012.07,4353.56"/>
    </edge>
    <edge id=":-14_6" function="internal">
        <lane id=":-14_6_0" index="0" speed="27.78" length="7.09" shape="21000.15,4350.69 21002.44,4352.67 21004.06,4355.40 21004.29,4356.26"/>
    </edge>
    <edge id=":-14_12" function="internal">
        <lane id=":-14_12_0" index="0" speed="27.78" length="6.95" shape="21004.29,4356.26 21005.00,4358.88 21005.27,4363.11"/>
    </edge>
    <edge id=":-14_7" function="internal">
        <lane id=":-14_7_0" index="0" speed="27.78" length="2.41" shape="21000.15,4350.69 21000.77,4352.04 21000.69,4352.96"/>
    </edge>
    <edge id=":-14_13" function="internal">
        <lane id=":-14_13_0" index="0" speed="27.78" length="2.41" shape="21000.69,4352.96 20999.91,4353.44 20998.42,4353.50"/>
    </edge>
    <edge id=":-14_8" function="internal">
        <lane id=":-14_8_0" index="0" speed="27.78" length="7.23" shape="20998.67,4363.01 20998.58,4360.55 20998.22,4358.62 20997.59,4357.21 20996.70,4356.32"/>
    </edge>
    <edge id=":-14_9" function="internal">
        <lane id=":-14_9_0" index="0" speed="27.78" length="15.92" shape="21001.97,4363.06 21002.66,4358.73 21004.57,4355.70 21007.71,4353.98 21012.07,4353.56"/>
    </edge>
    <edge id=":-14_10" function="internal">
        <lane id=":-14_10_0" index="0" speed="27.78" length="4.82" shape="21001.97,4363.06 21002.82,4361.83 21003.65,4361.43 21004.47,4361.86 21005.27,4363.11"/>
    </edge>
    <edge id=":-16_0" function="internal">
        <lane id=":-16_0_0" index="0" speed="27.78" length="7.16" shape="24684.39,4532.59 24683.82,4530.21 24683.02,4528.50 24681.98,4527.44 24680.70,4527.05"/>
    </edge>
    <edge id=":-16_1" function="internal">
        <lane id=":-16_1_0" index="0" speed="27.78" length="17.51" shape="24687.65,4532.05 24687.54,4527.11 24689.11,4523.63 24692.36,4521.63 24697.27,4521.09"/>
    </edge>
    <edge id=":-16_2" function="internal">
        <lane id=":-16_2_0" index="0" speed="27.78" length="4.82" shape="24687.65,4532.05 24688.26,4530.70 24689.01,4530.15 24689.89,4530.43 24690.90,4531.51"/>
    </edge>
    <edge id=":-16_3" function="internal">
        <lane id=":-16_3_0" index="0" speed="27.78" length="5.25" shape="24697.05,4527.68 24695.57,4527.85 24694.60,4528.45 24694.13,4529.49 24694.16,4530.97"/>
    </edge>
    <edge id=":-16_4" function="internal">
        <lane id=":-16_4_0" index="0" speed="27.78" length="16.36" shape="24697.05,4527.68 24692.19,4527.52 24688.87,4527.40 24685.55,4527.27 24680.70,4527.05"/>
    </edge>
    <edge id=":-16_5" function="internal">
        <lane id=":-16_5_0" index="0" speed="27.78" length="16.32" shape="24697.16,4524.39 24692.32,4524.22 24689.00,4524.10 24685.69,4523.97 24680.85,4523.75"/>
    </edge>
    <edge id=":-16_6" function="internal">
        <lane id=":-16_6_0" index="0" speed="27.78" length="2.41" shape="24697.16,4524.39 24695.95,4523.52 24695.56,4522.68"/>
    </edge>
    <edge id=":-16_11" function="internal">
        <lane id=":-16_11_0" index="0" speed="27.78" length="2.41" shape="24695.56,4522.68 24696.01,4521.87 24697.27,4521.09"/>
    </edge>
    <edge id=":-16_7" function="internal">
        <lane id=":-16_7_0" index="0" speed="27.78" length="16.24" shape="24681.15,4517.16 24685.97,4517.37 24689.27,4517.51 24692.56,4517.63 24697.38,4517.79"/>
    </edge>
    <edge id=":-16_8" function="internal">
        <lane id=":-16_8_0" index="0" speed="27.78" length="16.28" shape="24681.00,4520.46 24685.83,4520.67 24689.13,4520.81 24692.44,4520.92 24697.27,4521.09"/>
    </edge>
    <edge id=":-16_9" function="internal">
        <lane id=":-16_9_0" index="0" speed="27.78" length="8.10" shape="24681.00,4520.46 24684.67,4521.29 24687.54,4523.41 24687.94,4524.06"/>
    </edge>
    <edge id=":-16_12" function="internal">
        <lane id=":-16_12_0" index="0" speed="27.78" length="8.09" shape="24687.94,4524.06 24689.62,4526.81 24690.90,4531.51"/>
    </edge>
    <edge id=":-16_10" function="internal">
        <lane id=":-16_10_0" index="0" speed="27.78" length="2.41" shape="24681.00,4520.46 24682.20,4521.34 24682.58,4522.18"/>
    </edge>
    <edge id=":-16_13" function="internal">
        <lane id=":-16_13_0" index="0" speed="27.78" length="2.41" shape="24682.58,4522.18 24682.13,4522.98 24680.85,4523.75"/>
    </edge>
    <edge id=":-18_0" function="internal">
        <lane id=":-18_0_0" index="0" speed="27.78" length="8.58" shape="26602.85,4593.32 26601.48,4593.53 26600.13,4594.60 26598.78,4596.54 26597.44,4599.34"/>
    </edge>
    <edge id=":-18_1" function="internal">
        <lane id=":-18_1_0" index="0" speed="27.78" length="16.99" shape="26602.85,4593.32 26597.87,4592.56 26594.43,4592.21 26590.98,4592.06 26585.94,4591.92"/>
    </edge>
    <edge id=":-18_2" function="internal">
        <lane id=":-18_2_0" index="0" speed="27.78" length="17.42" shape="26603.39,4590.06 26598.28,4589.28 26594.76,4588.92 26591.22,4588.77 26586.05,4588.62"/>
    </edge>
    <edge id=":-18_3" function="internal">
        <lane id=":-18_3_0" index="0" speed="27.78" length="2.41" shape="26603.39,4590.06 26602.30,4589.05 26602.03,4588.17"/>
    </edge>
    <edge id=":-18_11" function="internal">
        <lane id=":-18_11_0" index="0" speed="27.78" length="2.41" shape="26602.03,4588.17 26602.57,4587.42 26603.92,4586.81"/>
    </edge>
    <edge id=":-18_4" function="internal">
        <lane id=":-18_4_0" index="0" speed="27.78" length="18.28" shape="26586.27,4582.02 26591.70,4582.18 26595.41,4582.34 26599.10,4582.73 26604.46,4583.55"/>
    </edge>
    <edge id=":-18_5" function="internal">
        <lane id=":-18_5_0" index="0" speed="27.78" length="17.85" shape="26586.16,4585.32 26591.46,4585.48 26595.09,4585.63 26598.69,4586.00 26603.92,4586.81"/>
    </edge>
    <edge id=":-18_6" function="internal">
        <lane id=":-18_6_0" index="0" speed="27.78" length="9.83" shape="26586.16,4585.32 26591.67,4586.29 26594.87,4588.74 26594.92,4588.94"/>
    </edge>
    <edge id=":-18_12" function="internal">
        <lane id=":-18_12_0" index="0" speed="27.78" length="9.42" shape="26594.92,4588.94 26595.78,4592.67 26594.39,4598.08"/>
    </edge>
    <edge id=":-18_7" function="internal">
        <lane id=":-18_7_0" index="0" speed="27.78" length="2.41" shape="26586.16,4585.32 26587.37,4586.19 26587.75,4587.02"/>
    </edge>
    <edge id=":-18_13" function="internal">
        <lane id=":-18_13_0" index="0" speed="27.78" length="2.41" shape="26587.75,4587.02 26587.31,4587.84 26586.05,4588.62"/>
    </edge>
    <edge id=":-18_8" function="internal">
        <lane id=":-18_8_0" index="0" speed="27.78" length="5.50" shape="26588.29,4595.56 26588.69,4594.02 26588.43,4592.89 26587.51,4592.19 26585.94,4591.92"/>
    </edge>
    <edge id=":-18_9" function="internal">
        <lane id=":-18_9_0" index="0" speed="27.78" length="17.43" shape="26591.34,4596.82 26593.88,4591.95 26596.82,4588.66 26600.17,4586.94 26603.92,4586.81"/>
    </edge>
    <edge id=":-18_10" function="internal">
        <lane id=":-18_10_0" index="0" speed="27.78" length="4.82" shape="26591.34,4596.82 26592.57,4595.99 26593.49,4595.93 26594.10,4596.62 26594.39,4598.08"/>
    </edge>
    <edge id=":-2_0" function="internal">
        <lane id=":-2_0_0" index="0" speed="27.78" length="5.89" shape="19478.03,12994.68 19476.45,12993.73 19475.01,12993.17 19473.70,12993.01 19472.54,12993.24"/>
    </edge>
    <edge id=":-2_1" function="internal">
        <lane id=":-2_1_0" index="0" speed="27.78" length="13.60" shape="19479.91,12991.97 19477.23,12989.53 19475.73,12986.72 19475.39,12983.56 19476.23,12980.04"/>
    </edge>
    <edge id=":-2_2" function="internal">
        <lane id=":-2_2_0" index="0" speed="27.78" length="4.82" shape="19479.91,12991.97 19479.36,12990.58 19479.49,12989.67 19480.30,12989.23 19481.79,12989.25"/>
    </edge>
    <edge id=":-2_3" function="internal">
        <lane id=":-2_3_0" index="0" speed="27.78" length="4.72" shape="19482.39,12982.40 19482.10,12983.62 19482.22,12984.72 19482.74,12985.69 19483.67,12986.54"/>
    </edge>
    <edge id=":-2_4" function="internal">
        <lane id=":-2_4_0" index="0" speed="27.78" length="15.08" shape="19482.39,12982.40 19480.59,12986.17 19478.35,12989.23 19475.66,12991.59 19472.54,12993.24"/>
    </edge>
    <edge id=":-2_5" function="internal">
        <lane id=":-2_5_0" index="0" speed="27.78" length="12.32" shape="19479.31,12981.22 19477.82,12984.36 19476.00,12986.90 19473.84,12988.83 19471.35,12990.16"/>
    </edge>
    <edge id=":-2_6" function="internal">
        <lane id=":-2_6_0" index="0" speed="27.78" length="2.41" shape="19479.31,12981.22 19478.09,12982.08 19477.18,12982.17"/>
    </edge>
    <edge id=":-2_11" function="internal">
        <lane id=":-2_11_0" index="0" speed="27.78" length="2.41" shape="19477.18,12982.17 19476.55,12981.49 19476.23,12980.04"/>
    </edge>
    <edge id=":-2_7" function="internal">
        <lane id=":-2_7_0" index="0" speed="27.78" length="6.81" shape="19468.97,12984.00 19470.20,12983.31 19471.31,12982.22 19472.29,12980.73 19473.14,12978.86"/>
    </edge>
    <edge id=":-2_8" function="internal">
        <lane id=":-2_8_0" index="0" speed="27.78" length="9.57" shape="19470.16,12987.08 19472.02,12986.07 19473.65,12984.56 19475.05,12982.55 19476.23,12980.04"/>
    </edge>
    <edge id=":-2_9" function="internal">
        <lane id=":-2_9_0" index="0" speed="27.78" length="6.09" shape="19470.16,12987.08 19472.93,12986.43 19475.79,12986.57 19476.15,12986.68"/>
    </edge>
    <edge id=":-2_12" function="internal">
        <lane id=":-2_12_0" index="0" speed="27.78" length="6.23" shape="19476.15,12986.68 19478.75,12987.51 19481.79,12989.25"/>
    </edge>
    <edge id=":-2_10" function="internal">
        <lane id=":-2_10_0" index="0" speed="27.78" length="2.41" shape="19470.16,12987.08 19471.61,12987.41 19472.29,12988.03"/>
    </edge>
    <edge id=":-2_13" function="internal">
        <lane id=":-2_13_0" index="0" speed="27.78" length="2.41" shape="19472.29,12988.03 19472.20,12988.94 19471.35,12990.16"/>
    </edge>
    <edge id=":-20_0" function="internal">
        <lane id=":-20_0_0" index="0" speed="22.22" length="13.23" shape="25680.94,6822.74 25678.20,6820.61 25675.45,6819.10 25672.47,6818.11 25669.04,6817.54"/>
    </edge>
    <edge id=":-20_1" function="internal">
        <lane id=":-20_1_0" index="0" speed="25.00" length="8.46" shape="25680.94,6822.74 25678.25,6820.05 25676.55,6817.58 25676.06,6815.99"/>
    </edge>
    <edge id=":-20_9" function="internal">
        <lane id=":-20_9_0" index="0" speed="25.00" length="2.74" shape="25676.06,6815.99 25675.85,6815.34 25676.15,6813.31"/>
    </edge>
    <edge id=":-20_2" function="internal">
        <lane id=":-20_2_0" index="0" speed="22.22" length="2.41" shape="25680.94,6822.74 25680.56,6821.31 25680.79,6820.42"/>
    </edge>
    <edge id=":-20_10" function="internal">
        <lane id=":-20_10_0" index="0" speed="22.22" length="2.41" shape="25680.79,6820.42 25681.65,6820.07 25683.12,6820.27"/>
    </edge>
    <edge id=":-20_3" function="internal">
        <lane id=":-20_3_0" index="0" speed="25.00" length="4.86" shape="25682.25,6815.83 25681.88,6817.12 25681.91,6818.29 25682.32,6819.34 25683.12,6820.27"/>
    </edge>
    <edge id=":-20_4" function="internal">
        <lane id=":-20_4_0" index="0" speed="25.00" length="2.79" shape="25679.20,6814.57 25677.96,6816.21 25677.30,6816.54"/>
    </edge>
    <edge id=":-20_11" function="internal">
        <lane id=":-20_11_0" index="0" speed="25.00" length="8.47" shape="25677.30,6816.54 25675.86,6817.25 25672.88,6817.70 25669.04,6817.54"/>
    </edge>
    <edge id=":-20_5" function="internal">
        <lane id=":-20_5_0" index="0" speed="27.78" length="2.41" shape="25679.20,6814.57 25677.96,6815.40 25677.04,6815.47"/>
    </edge>
    <edge id=":-20_12" function="internal">
        <lane id=":-20_12_0" index="0" speed="27.78" length="2.41" shape="25677.04,6815.47 25676.44,6814.77 25676.15,6813.31"/>
    </edge>
    <edge id=":-20_6" function="internal">
        <lane id=":-20_6_0" index="0" speed="25.00" length="4.67" shape="25669.38,6814.26 25670.62,6814.23 25671.65,6813.85 25672.48,6813.13 25673.10,6812.05"/>
    </edge>
    <edge id=":-20_7" function="internal">
        <lane id=":-20_7_0" index="0" speed="22.22" length="15.21" shape="25669.38,6814.26 25673.10,6814.96 25676.71,6816.22 25680.09,6818.01 25683.12,6820.27"/>
    </edge>
    <edge id=":-20_8" function="internal">
        <lane id=":-20_8_0" index="0" speed="22.22" length="2.41" shape="25669.38,6814.26 25670.53,6815.21 25670.85,6816.08"/>
    </edge>
    <edge id=":-20_13" function="internal">
        <lane id=":-20_13_0" index="0" speed="22.22" length="2.41" shape="25670.85,6816.08 25670.36,6816.85 25669.04,6817.54"/>
    </edge>
    <edge id=":-22_0" function="internal">
        <lane id=":-22_0_0" index="0" speed="22.22" length="13.45" shape="25063.87,6753.71 25060.36,6753.55 25057.16,6753.85 25054.05,6754.67 25050.82,6756.04"/>
    </edge>
    <edge id=":-22_1" function="internal">
        <lane id=":-22_1_0" index="0" speed="25.00" length="8.58" shape="25063.87,6753.71 25060.06,6753.05 25057.23,6751.97 25055.93,6750.90"/>
    </edge>
    <edge id=":-22_9" function="internal">
        <lane id=":-22_9_0" index="0" speed="25.00" length="2.78" shape="25055.93,6750.90 25055.40,6750.47 25054.55,6748.54"/>
    </edge>
    <edge id=":-22_2" function="internal">
        <lane id=":-22_2_0" index="0" speed="22.22" length="2.41" shape="25063.87,6753.71 25062.72,6752.76 25062.40,6751.90"/>
    </edge>
    <edge id=":-22_10" function="internal">
        <lane id=":-22_10_0" index="0" speed="22.22" length="2.41" shape="25062.40,6751.90 25062.89,6751.12 25064.21,6750.43"/>
    </edge>
    <edge id=":-22_3" function="internal">
        <lane id=":-22_3_0" index="0" speed="25.00" length="4.69" shape="25061.06,6747.47 25061.43,6748.66 25062.07,6749.55 25063.00,6750.14 25064.21,6750.43"/>
    </edge>
    <edge id=":-22_4" function="internal">
        <lane id=":-22_4_0" index="0" speed="25.00" length="3.43" shape="25061.06,6747.47 25060.63,6749.22 25059.52,6750.41"/>
    </edge>
    <edge id=":-22_11" function="internal">
        <lane id=":-22_11_0" index="0" speed="25.00" length="10.42" shape="25059.52,6750.41 25058.77,6751.23 25055.50,6753.50 25050.82,6756.04"/>
    </edge>
    <edge id=":-22_5" function="internal">
        <lane id=":-22_5_0" index="0" speed="27.78" length="2.41" shape="25057.81,6748.00 25057.20,6749.36 25056.45,6749.90"/>
    </edge>
    <edge id=":-22_12" function="internal">
        <lane id=":-22_12_0" index="0" speed="27.78" length="2.41" shape="25056.45,6749.90 25055.57,6749.63 25054.55,6748.54"/>
    </edge>
    <edge id=":-22_6" function="internal">
        <lane id=":-22_6_0" index="0" speed="25.00" length="4.81" shape="25049.36,6753.09 25050.38,6752.39 25051.05,6751.49 25051.35,6750.39 25051.30,6749.08"/>
    </edge>
    <edge id=":-22_7" function="internal">
        <lane id=":-22_7_0" index="0" speed="22.22" length="15.27" shape="25049.36,6753.09 25052.87,6751.66 25056.60,6750.73 25060.42,6750.31 25064.21,6750.43"/>
    </edge>
    <edge id=":-22_8" function="internal">
        <lane id=":-22_8_0" index="0" speed="22.22" length="2.41" shape="25049.36,6753.09 25050.83,6753.28 25051.57,6753.83"/>
    </edge>
    <edge id=":-22_13" function="internal">
        <lane id=":-22_13_0" index="0" speed="22.22" length="2.41" shape="25051.57,6753.83 25051.57,6754.76 25050.82,6756.04"/>
    </edge>
    <edge id=":-24_0" function="internal">
        <lane id=":-24_0_0" index="0" speed="25.00" length="4.11" shape="22804.94,7869.76 22804.05,7870.31 22803.31,7870.99 22802.74,7871.82 22802.32,7872.78"/>
    </edge>
    <edge id=":-24_1" function="internal">
        <lane id=":-24_1_0" index="0" speed="25.00" length="6.33" shape="22804.94,7869.76 22802.29,7871.01 22800.45,7871.77 22799.42,7872.01 22799.18,7871.75"/>
    </edge>
    <edge id=":-24_2" function="internal">
        <lane id=":-24_2_0" index="0" speed="22.22" length="4.82" shape="22804.94,7869.76 22803.47,7869.57 22802.73,7869.01 22802.73,7868.09 22803.47,7866.80"/>
    </edge>
    <edge id=":-24_3" function="internal">
        <lane id=":-24_3_0" index="0" speed="25.00" length="11.92" shape="22792.91,7869.69 22793.23,7870.56 22795.09,7870.37 22798.51,7869.12 22803.47,7866.80"/>
    </edge>
    <edge id=":-24_4" function="internal">
        <lane id=":-24_4_0" index="0" speed="27.78" length="4.82" shape="22796.05,7870.72 22797.22,7869.80 22798.13,7869.67 22798.79,7870.32 22799.18,7871.75"/>
    </edge>
    <edge id=":-26_0" function="internal">
        <lane id=":-26_0_0" index="0" speed="25.00" length="6.85" shape="23673.70,9763.89 23672.44,9764.02 23671.15,9764.72 23669.84,9765.99 23668.49,9767.84"/>
    </edge>
    <edge id=":-26_1" function="internal">
        <lane id=":-26_1_0" index="0" speed="22.22" length="15.63" shape="23673.70,9763.89 23669.93,9763.14 23666.17,9761.88 23662.57,9760.21 23659.28,9758.21"/>
    </edge>
    <edge id=":-26_2" function="internal">
        <lane id=":-26_2_0" index="0" speed="22.22" length="2.41" shape="23673.70,9763.89 23672.58,9762.92 23672.27,9762.05"/>
    </edge>
    <edge id=":-26_9" function="internal">
        <lane id=":-26_9_0" index="0" speed="22.22" length="2.41" shape="23672.27,9762.05 23672.78,9761.28 23674.11,9760.61"/>
    </edge>
    <edge id=":-26_3" function="internal">
        <lane id=":-26_3_0" index="0" speed="22.22" length="14.07" shape="23661.15,9755.49 23664.22,9757.40 23667.32,9758.88 23670.57,9759.95 23674.11,9760.61"/>
    </edge>
    <edge id=":-26_4" function="internal">
        <lane id=":-26_4_0" index="0" speed="25.00" length="8.57" shape="23661.15,9755.49 23664.38,9758.18 23666.22,9760.84 23666.41,9761.96"/>
    </edge>
    <edge id=":-26_10" function="internal">
        <lane id=":-26_10_0" index="0" speed="25.00" length="4.29" shape="23666.41,9761.96 23666.66,9763.46 23665.71,9766.06"/>
    </edge>
    <edge id=":-26_5" function="internal">
        <lane id=":-26_5_0" index="0" speed="22.22" length="2.41" shape="23661.15,9755.49 23661.70,9756.87 23661.58,9757.79"/>
    </edge>
    <edge id=":-26_11" function="internal">
        <lane id=":-26_11_0" index="0" speed="22.22" length="2.41" shape="23661.58,9757.79 23660.77,9758.23 23659.28,9758.21"/>
    </edge>
    <edge id=":-26_6" function="internal">
        <lane id=":-26_6_0" index="0" speed="25.00" length="4.96" shape="23660.15,9762.50 23660.71,9761.27 23660.75,9760.15 23660.28,9759.12 23659.28,9758.21"/>
    </edge>
    <edge id=":-26_7" function="internal">
        <lane id=":-26_7_0" index="0" speed="25.00" length="3.96" shape="23660.15,9762.50 23661.83,9761.12 23663.55,9760.66"/>
    </edge>
    <edge id=":-26_12" function="internal">
        <lane id=":-26_12_0" index="0" speed="25.00" length="10.62" shape="23663.55,9760.66 23664.71,9760.35 23668.81,9760.18 23674.11,9760.61"/>
    </edge>
    <edge id=":-26_8" function="internal">
        <lane id=":-26_8_0" index="0" speed="27.78" length="2.41" shape="23662.93,9764.28 23664.29,9763.68 23665.21,9763.78"/>
    </edge>
    <edge id=":-26_13" function="internal">
        <lane id=":-26_13_0" index="0" speed="27.78" length="2.41" shape="23665.21,9763.78 23665.68,9764.57 23665.71,9766.06"/>
    </edge>
    <edge id=":-28_0" function="internal">
        <lane id=":-28_0_0" index="0" speed="25.00" length="9.48" shape="25133.15,9940.76 25132.28,9941.76 25131.45,9943.56 25130.68,9946.15 25129.95,9949.54"/>
    </edge>
    <edge id=":-28_1" function="internal">
        <lane id=":-28_1_0" index="0" speed="22.22" length="16.18" shape="25133.15,9940.76 25129.68,9942.56 25125.70,9943.76 25121.56,9944.31 25117.63,9944.19"/>
    </edge>
    <edge id=":-28_2" function="internal">
        <lane id=":-28_2_0" index="0" speed="22.22" length="2.41" shape="25133.15,9940.76 25131.67,9940.77 25130.86,9940.31"/>
    </edge>
    <edge id=":-28_9" function="internal">
        <lane id=":-28_9_0" index="0" speed="22.22" length="2.41" shape="25130.86,9940.31 25130.74,9939.40 25131.31,9938.02"/>
    </edge>
    <edge id=":-28_3" function="internal">
        <lane id=":-28_3_0" index="0" speed="22.22" length="13.90" shape="25118.04,9940.92 25121.62,9941.12 25124.98,9940.75 25128.18,9939.74 25131.31,9938.02"/>
    </edge>
    <edge id=":-28_4" function="internal">
        <lane id=":-28_4_0" index="0" speed="25.00" length="7.99" shape="25118.04,9940.92 25122.30,9941.89 25125.17,9943.54 25125.33,9943.81"/>
    </edge>
    <edge id=":-28_10" function="internal">
        <lane id=":-28_10_0" index="0" speed="25.00" length="5.51" shape="25125.33,9943.81 25126.64,9945.90 25126.71,9948.94"/>
    </edge>
    <edge id=":-28_5" function="internal">
        <lane id=":-28_5_0" index="0" speed="22.22" length="2.41" shape="25118.04,9940.92 25119.16,9941.89 25119.47,9942.76"/>
    </edge>
    <edge id=":-28_11" function="internal">
        <lane id=":-28_11_0" index="0" speed="22.22" length="2.41" shape="25119.47,9942.76 25118.96,9943.53 25117.63,9944.19"/>
    </edge>
    <edge id=":-28_6" function="internal">
        <lane id=":-28_6_0" index="0" speed="25.00" length="5.07" shape="25120.22,9947.73 25120.27,9946.33 25119.86,9945.28 25118.98,9944.56 25117.63,9944.19"/>
    </edge>
    <edge id=":-28_7" function="internal">
        <lane id=":-28_7_0" index="0" speed="25.00" length="4.81" shape="25120.22,9947.73 25121.09,9946.17 25123.23,9944.03"/>
    </edge>
    <edge id=":-28_12" function="internal">
        <lane id=":-28_12_0" index="0" speed="25.00" length="10.08" shape="25123.23,9944.03 25126.63,9941.32 25131.31,9938.02"/>
    </edge>
    <edge id=":-28_8" function="internal">
        <lane id=":-28_8_0" index="0" speed="27.78" length="2.41" shape="25123.46,9948.34 25124.50,9947.27 25125.38,9947.02"/>
    </edge>
    <edge id=":-28_13" function="internal">
        <lane id=":-28_13_0" index="0" speed="27.78" length="2.41" shape="25125.38,9947.02 25126.12,9947.57 25126.71,9948.94"/>
    </edge>
    <edge id=":-30_0" function="internal">
        <lane id=":-30_0_0" index="0" speed="27.78" length="8.32" shape="20942.82,9186.11 20939.94,9186.74 20937.76,9187.51 20936.28,9188.42 20935.49,9189.47"/>
    </edge>
    <edge id=":-30_1" function="internal">
        <lane id=":-30_1_0" index="0" speed="27.78" length="17.37" shape="20942.27,9182.86 20937.38,9182.99 20933.91,9181.46 20931.86,9178.26 20931.23,9173.41"/>
    </edge>
    <edge id=":-30_2" function="internal">
        <lane id=":-30_2_0" index="0" speed="27.78" length="4.82" shape="20942.27,9182.86 20940.91,9182.26 20940.36,9181.51 20940.63,9180.63 20941.71,9179.61"/>
    </edge>
    <edge id=":-30_3" function="internal">
        <lane id=":-30_3_0" index="0" speed="27.78" length="5.24" shape="20937.83,9173.51 20938.02,9174.97 20938.64,9175.93 20939.68,9176.39 20941.16,9176.36"/>
    </edge>
    <edge id=":-30_4" function="internal">
        <lane id=":-30_4_0" index="0" speed="27.78" length="16.29" shape="20937.83,9173.51 20937.82,9178.35 20937.70,9181.69 20937.06,9184.93 20935.49,9189.47"/>
    </edge>
    <edge id=":-30_5" function="internal">